Geom Title=New Geometry
Program Version=6.70
Viewing Rectangle= 13312694.2133372 , 13316000.4822678 , 3456606.03796447 , 3454308.57543154 

Storage Area=Perimeter 1     ,13314295.1133455,3455496.3936037
Storage Area Surface Line= 18 
13312933.43144293454798.62154887                
13312957.36178253455079.80304019                
13313495.79442553455516.53173946                
13314149.48794553455870.80193977                
13314243.35787253455979.69105511                
13314601.94099373455949.65267847                
13315073.1680274 3456225.6302639                
13315366.04219973456400.22832816                
13315388.57098223456501.60784934                
13315850.19731643456133.58245887                
13314585.25298793455216.14126408                
13314320.42433373455190.27427925                
13314138.12367873455095.42866821                
13313961.40140553455013.21234329                
13313685.48690063454829.67992712                
13313261.24515423454413.00554667                
13312844.49828863454645.60844842                
13312933.43144293454798.62154887                
Storage Area Type= 1 
Storage Area Area=
Storage Area Min Elev=
Storage Area Is2D=-1
Storage Area Point Generation Data=,,20,20
Storage Area 2D Points= 4894 
13315394.49828863456471.6078493413315414.49828863456471.60784934
13315394.49828863456451.6078493413315414.49828863456451.60784934
13315434.49828863456451.6078493413315394.49828863456431.60784934
13315414.49828863456431.6078493413315434.49828863456431.60784934
13315454.49828863456431.6078493413315374.49828863456411.60784934
13315394.49828863456411.6078493413315414.49828863456411.60784934
13315434.49828863456411.6078493413315454.49828863456411.60784934
13315474.49828863456411.6078493413315374.49828863456391.60784934
13315394.49828863456391.6078493413315414.49828863456391.60784934
13315434.49828863456391.6078493413315454.49828863456391.60784934
13315474.49828863456391.6078493413315494.49828863456391.60784934
13315514.49828863456391.6078493413315334.49828863456371.60784934
13315354.49828863456371.6078493413315374.49828863456371.60784934
13315394.49828863456371.6078493413315414.49828863456371.60784934
13315434.49828863456371.6078493413315454.49828863456371.60784934
13315474.49828863456371.6078493413315494.49828863456371.60784934
13315514.49828863456371.6078493413315534.49828863456371.60784934
13315294.49828863456351.6078493413315314.49828863456351.60784934
13315334.49828863456351.6078493413315354.49828863456351.60784934
13315374.49828863456351.6078493413315394.49828863456351.60784934
13315414.49828863456351.6078493413315434.49828863456351.60784934
13315454.49828863456351.6078493413315474.49828863456351.60784934
13315494.49828863456351.6078493413315514.49828863456351.60784934
13315534.49828863456351.6078493413315554.49828863456351.60784934
13315274.49828863456331.6078493413315294.49828863456331.60784934
13315314.49828863456331.6078493413315334.49828863456331.60784934
13315354.49828863456331.6078493413315374.49828863456331.60784934
13315394.49828863456331.6078493413315414.49828863456331.60784934
13315434.49828863456331.6078493413315454.49828863456331.60784934
13315474.49828863456331.6078493413315494.49828863456331.60784934
13315514.49828863456331.6078493413315534.49828863456331.60784934
13315554.49828863456331.6078493413315574.49828863456331.60784934
13315234.49828863456311.6078493413315254.49828863456311.60784934
13315274.49828863456311.6078493413315294.49828863456311.60784934
13315314.49828863456311.6078493413315334.49828863456311.60784934
13315354.49828863456311.6078493413315374.49828863456311.60784934
13315394.49828863456311.6078493413315414.49828863456311.60784934
13315434.49828863456311.6078493413315454.49828863456311.60784934
13315474.49828863456311.6078493413315494.49828863456311.60784934
13315514.49828863456311.6078493413315534.49828863456311.60784934
13315554.49828863456311.6078493413315574.49828863456311.60784934
13315594.49828863456311.6078493413315614.49828863456311.60784934
13315194.49828863456291.6078493413315214.49828863456291.60784934
13315234.49828863456291.6078493413315254.49828863456291.60784934
13315274.49828863456291.6078493413315294.49828863456291.60784934
13315314.49828863456291.6078493413315334.49828863456291.60784934
13315354.49828863456291.6078493413315374.49828863456291.60784934
13315394.49828863456291.6078493413315414.49828863456291.60784934
13315434.49828863456291.6078493413315454.49828863456291.60784934
13315474.49828863456291.6078493413315494.49828863456291.60784934
13315514.49828863456291.6078493413315534.49828863456291.60784934
13315554.49828863456291.6078493413315574.49828863456291.60784934
13315594.49828863456291.6078493413315614.49828863456291.60784934
13315634.49828863456291.6078493413315174.49828863456271.60784934
13315194.49828863456271.6078493413315214.49828863456271.60784934
13315234.49828863456271.6078493413315254.49828863456271.60784934
13315274.49828863456271.6078493413315294.49828863456271.60784934
13315314.49828863456271.6078493413315334.49828863456271.60784934
13315354.49828863456271.6078493413315374.49828863456271.60784934
13315394.49828863456271.6078493413315414.49828863456271.60784934
13315434.49828863456271.6078493413315454.49828863456271.60784934
13315474.49828863456271.6078493413315494.49828863456271.60784934
13315514.49828863456271.6078493413315534.49828863456271.60784934
13315554.49828863456271.6078493413315574.49828863456271.60784934
13315594.49828863456271.6078493413315614.49828863456271.60784934
13315634.49828863456271.6078493413315654.49828863456271.60784934
13315134.49828863456251.6078493413315154.49828863456251.60784934
13315174.49828863456251.6078493413315194.49828863456251.60784934
13315214.49828863456251.6078493413315234.49828863456251.60784934
13315254.49828863456251.6078493413315274.49828863456251.60784934
13315294.49828863456251.6078493413315314.49828863456251.60784934
13315334.49828863456251.6078493413315354.49828863456251.60784934
13315374.49828863456251.6078493413315394.49828863456251.60784934
13315414.49828863456251.6078493413315434.49828863456251.60784934
13315454.49828863456251.6078493413315474.49828863456251.60784934
13315494.49828863456251.6078493413315514.49828863456251.60784934
13315534.49828863456251.6078493413315554.49828863456251.60784934
13315574.49828863456251.6078493413315594.49828863456251.60784934
13315614.49828863456251.6078493413315634.49828863456251.60784934
13315654.49828863456251.6078493413315674.49828863456251.60784934
13315094.49828863456231.6078493413315114.49828863456231.60784934
13315134.49828863456231.6078493413315154.49828863456231.60784934
13315174.49828863456231.6078493413315194.49828863456231.60784934
13315214.49828863456231.6078493413315234.49828863456231.60784934
13315254.49828863456231.6078493413315274.49828863456231.60784934
13315294.49828863456231.6078493413315314.49828863456231.60784934
13315334.49828863456231.6078493413315354.49828863456231.60784934
13315374.49828863456231.6078493413315394.49828863456231.60784934
13315414.49828863456231.6078493413315434.49828863456231.60784934
13315454.49828863456231.6078493413315474.49828863456231.60784934
13315494.49828863456231.6078493413315514.49828863456231.60784934
13315534.49828863456231.6078493413315554.49828863456231.60784934
13315574.49828863456231.6078493413315594.49828863456231.60784934
13315614.49828863456231.6078493413315634.49828863456231.60784934
13315654.49828863456231.6078493413315674.49828863456231.60784934
13315694.49828863456231.6078493413315714.49828863456231.60784934
13315074.49828863456211.6078493413315094.49828863456211.60784934
13315114.49828863456211.6078493413315134.49828863456211.60784934
13315154.49828863456211.6078493413315174.49828863456211.60784934
13315194.49828863456211.6078493413315214.49828863456211.60784934
13315234.49828863456211.6078493413315254.49828863456211.60784934
13315274.49828863456211.6078493413315294.49828863456211.60784934
13315314.49828863456211.6078493413315334.49828863456211.60784934
13315354.49828863456211.6078493413315374.49828863456211.60784934
13315394.49828863456211.6078493413315414.49828863456211.60784934
13315434.49828863456211.6078493413315454.49828863456211.60784934
13315474.49828863456211.6078493413315494.49828863456211.60784934
13315514.49828863456211.6078493413315534.49828863456211.60784934
13315554.49828863456211.6078493413315574.49828863456211.60784934
13315594.49828863456211.6078493413315614.49828863456211.60784934
13315634.49828863456211.6078493413315654.49828863456211.60784934
13315674.49828863456211.6078493413315694.49828863456211.60784934
13315714.49828863456211.6078493413315734.49828863456211.60784934
13315034.49828863456191.6078493413315054.49828863456191.60784934
13315074.49828863456191.6078493413315094.49828863456191.60784934
13315114.49828863456191.6078493413315134.49828863456191.60784934
13315154.49828863456191.6078493413315174.49828863456191.60784934
13315194.49828863456191.6078493413315214.49828863456191.60784934
13315234.49828863456191.6078493413315254.49828863456191.60784934
13315274.49828863456191.6078493413315294.49828863456191.60784934
13315314.49828863456191.6078493413315334.49828863456191.60784934
13315354.49828863456191.6078493413315374.49828863456191.60784934
13315394.49828863456191.6078493413315414.49828863456191.60784934
13315434.49828863456191.6078493413315454.49828863456191.60784934
13315474.49828863456191.6078493413315494.49828863456191.60784934
13315514.49828863456191.6078493413315534.49828863456191.60784934
13315554.49828863456191.6078493413315574.49828863456191.60784934
13315594.49828863456191.6078493413315614.49828863456191.60784934
13315634.49828863456191.6078493413315654.49828863456191.60784934
13315674.49828863456191.6078493413315694.49828863456191.60784934
13315714.49828863456191.6078493413315734.49828863456191.60784934
13315754.49828863456191.6078493413314994.49828863456171.60784934
13315014.49828863456171.6078493413315034.49828863456171.60784934
13315054.49828863456171.6078493413315074.49828863456171.60784934
13315094.49828863456171.6078493413315114.49828863456171.60784934
13315134.49828863456171.6078493413315154.49828863456171.60784934
13315174.49828863456171.6078493413315194.49828863456171.60784934
13315214.49828863456171.6078493413315234.49828863456171.60784934
13315254.49828863456171.6078493413315274.49828863456171.60784934
13315294.49828863456171.6078493413315314.49828863456171.60784934
13315334.49828863456171.6078493413315354.49828863456171.60784934
13315374.49828863456171.6078493413315394.49828863456171.60784934
13315414.49828863456171.6078493413315434.49828863456171.60784934
13315454.49828863456171.6078493413315474.49828863456171.60784934
13315494.49828863456171.6078493413315514.49828863456171.60784934
13315534.49828863456171.6078493413315554.49828863456171.60784934
13315574.49828863456171.6078493413315594.49828863456171.60784934
13315614.49828863456171.6078493413315634.49828863456171.60784934
13315654.49828863456171.6078493413315674.49828863456171.60784934
13315694.49828863456171.6078493413315714.49828863456171.60784934
13315734.49828863456171.6078493413315754.49828863456171.60784934
13315774.49828863456171.6078493413314974.49828863456151.60784934
13314994.49828863456151.6078493413315014.49828863456151.60784934
13315034.49828863456151.6078493413315054.49828863456151.60784934
13315074.49828863456151.6078493413315094.49828863456151.60784934
13315114.49828863456151.6078493413315134.49828863456151.60784934
13315154.49828863456151.6078493413315174.49828863456151.60784934
13315194.49828863456151.6078493413315214.49828863456151.60784934
13315234.49828863456151.6078493413315254.49828863456151.60784934
13315274.49828863456151.6078493413315294.49828863456151.60784934
13315314.49828863456151.6078493413315334.49828863456151.60784934
13315354.49828863456151.6078493413315374.49828863456151.60784934
13315394.49828863456151.6078493413315414.49828863456151.60784934
13315434.49828863456151.6078493413315454.49828863456151.60784934
13315474.49828863456151.6078493413315494.49828863456151.60784934
13315514.49828863456151.6078493413315534.49828863456151.60784934
13315554.49828863456151.6078493413315574.49828863456151.60784934
13315594.49828863456151.6078493413315614.49828863456151.60784934
13315634.49828863456151.6078493413315654.49828863456151.60784934
13315674.49828863456151.6078493413315694.49828863456151.60784934
13315714.49828863456151.6078493413315734.49828863456151.60784934
13315754.49828863456151.6078493413315774.49828863456151.60784934
13315794.49828863456151.6078493413315814.49828863456151.60784934
13314934.49828863456131.6078493413314954.49828863456131.60784934
13314974.49828863456131.6078493413314994.49828863456131.60784934
13315014.49828863456131.6078493413315034.49828863456131.60784934
13315054.49828863456131.6078493413315074.49828863456131.60784934
13315094.49828863456131.6078493413315114.49828863456131.60784934
13315134.49828863456131.6078493413315154.49828863456131.60784934
13315174.49828863456131.6078493413315194.49828863456131.60784934
13315214.49828863456131.6078493413315234.49828863456131.60784934
13315254.49828863456131.6078493413315274.49828863456131.60784934
13315294.49828863456131.6078493413315314.49828863456131.60784934
13315334.49828863456131.6078493413315354.49828863456131.60784934
13315374.49828863456131.6078493413315394.49828863456131.60784934
13315414.49828863456131.6078493413315434.49828863456131.60784934
13315454.49828863456131.6078493413315474.49828863456131.60784934
13315494.49828863456131.6078493413315514.49828863456131.60784934
13315534.49828863456131.6078493413315554.49828863456131.60784934
13315574.49828863456131.6078493413315594.49828863456131.60784934
13315614.49828863456131.6078493413315634.49828863456131.60784934
13315654.49828863456131.6078493413315674.49828863456131.60784934
13315694.49828863456131.6078493413315714.49828863456131.60784934
13315734.49828863456131.6078493413315754.49828863456131.60784934
13315774.49828863456131.6078493413315794.49828863456131.60784934
13315814.49828863456131.6078493413315834.49828863456131.60784934
13314894.49828863456111.6078493413314914.49828863456111.60784934
13314934.49828863456111.6078493413314954.49828863456111.60784934
13314974.49828863456111.6078493413314994.49828863456111.60784934
13315014.49828863456111.6078493413315034.49828863456111.60784934
13315054.49828863456111.6078493413315074.49828863456111.60784934
13315094.49828863456111.6078493413315114.49828863456111.60784934
13315134.49828863456111.6078493413315154.49828863456111.60784934
13315174.49828863456111.6078493413315194.49828863456111.60784934
13315214.49828863456111.6078493413315234.49828863456111.60784934
13315254.49828863456111.6078493413315274.49828863456111.60784934
13315294.49828863456111.6078493413315314.49828863456111.60784934
13315334.49828863456111.6078493413315354.49828863456111.60784934
13315374.49828863456111.6078493413315394.49828863456111.60784934
13315414.49828863456111.6078493413315434.49828863456111.60784934
13315454.49828863456111.6078493413315474.49828863456111.60784934
13315494.49828863456111.6078493413315514.49828863456111.60784934
13315534.49828863456111.6078493413315554.49828863456111.60784934
13315574.49828863456111.6078493413315594.49828863456111.60784934
13315614.49828863456111.6078493413315634.49828863456111.60784934
13315654.49828863456111.6078493413315674.49828863456111.60784934
13315694.49828863456111.6078493413315714.49828863456111.60784934
13315734.49828863456111.6078493413315754.49828863456111.60784934
13315774.49828863456111.6078493413315794.49828863456111.60784934
13314854.49828863456091.6078493413314874.49828863456091.60784934
13314894.49828863456091.6078493413314914.49828863456091.60784934
13314934.49828863456091.6078493413314954.49828863456091.60784934
13314974.49828863456091.6078493413314994.49828863456091.60784934
13315014.49828863456091.6078493413315034.49828863456091.60784934
13315054.49828863456091.6078493413315074.49828863456091.60784934
13315094.49828863456091.6078493413315114.49828863456091.60784934
13315134.49828863456091.6078493413315154.49828863456091.60784934
13315174.49828863456091.6078493413315194.49828863456091.60784934
13315214.49828863456091.6078493413315234.49828863456091.60784934
13315254.49828863456091.6078493413315274.49828863456091.60784934
13315294.49828863456091.6078493413315314.49828863456091.60784934
13315334.49828863456091.6078493413315354.49828863456091.60784934
13315374.49828863456091.6078493413315394.49828863456091.60784934
13315414.49828863456091.6078493413315434.49828863456091.60784934
13315454.49828863456091.6078493413315474.49828863456091.60784934
13315494.49828863456091.6078493413315514.49828863456091.60784934
13315534.49828863456091.6078493413315554.49828863456091.60784934
13315574.49828863456091.6078493413315594.49828863456091.60784934
13315614.49828863456091.6078493413315634.49828863456091.60784934
13315654.49828863456091.6078493413315674.49828863456091.60784934
13315694.49828863456091.6078493413315714.49828863456091.60784934
13315734.49828863456091.6078493413315754.49828863456091.60784934
13315774.49828863456091.6078493413314834.49828863456071.60784934
13314854.49828863456071.6078493413314874.49828863456071.60784934
13314894.49828863456071.6078493413314914.49828863456071.60784934
13314934.49828863456071.6078493413314954.49828863456071.60784934
13314974.49828863456071.6078493413314994.49828863456071.60784934
13315014.49828863456071.6078493413315034.49828863456071.60784934
13315054.49828863456071.6078493413315074.49828863456071.60784934
13315094.49828863456071.6078493413315114.49828863456071.60784934
13315134.49828863456071.6078493413315154.49828863456071.60784934
13315174.49828863456071.6078493413315194.49828863456071.60784934
13315214.49828863456071.6078493413315234.49828863456071.60784934
13315254.49828863456071.6078493413315274.49828863456071.60784934
13315294.49828863456071.6078493413315314.49828863456071.60784934
13315334.49828863456071.6078493413315354.49828863456071.60784934
13315374.49828863456071.6078493413315394.49828863456071.60784934
13315414.49828863456071.6078493413315434.49828863456071.60784934
13315454.49828863456071.6078493413315474.49828863456071.60784934
13315494.49828863456071.6078493413315514.49828863456071.60784934
13315534.49828863456071.6078493413315554.49828863456071.60784934
13315574.49828863456071.6078493413315594.49828863456071.60784934
13315614.49828863456071.6078493413315634.49828863456071.60784934
13315654.49828863456071.6078493413315674.49828863456071.60784934
13315694.49828863456071.6078493413315714.49828863456071.60784934
13315734.49828863456071.6078493413315754.49828863456071.60784934
13314794.49828863456051.6078493413314814.49828863456051.60784934
13314834.49828863456051.6078493413314854.49828863456051.60784934
13314874.49828863456051.6078493413314894.49828863456051.60784934
13314914.49828863456051.6078493413314934.49828863456051.60784934
13314954.49828863456051.6078493413314974.49828863456051.60784934
13314994.49828863456051.6078493413315014.49828863456051.60784934
13315034.49828863456051.6078493413315054.49828863456051.60784934
13315074.49828863456051.6078493413315094.49828863456051.60784934
13315114.49828863456051.6078493413315134.49828863456051.60784934
13315154.49828863456051.6078493413315174.49828863456051.60784934
13315194.49828863456051.6078493413315214.49828863456051.60784934
13315234.49828863456051.6078493413315254.49828863456051.60784934
13315274.49828863456051.6078493413315294.49828863456051.60784934
13315314.49828863456051.6078493413315334.49828863456051.60784934
13315354.49828863456051.6078493413315374.49828863456051.60784934
13315394.49828863456051.6078493413315414.49828863456051.60784934
13315434.49828863456051.6078493413315454.49828863456051.60784934
13315474.49828863456051.6078493413315494.49828863456051.60784934
13315514.49828863456051.6078493413315534.49828863456051.60784934
13315554.49828863456051.6078493413315574.49828863456051.60784934
13315594.49828863456051.6078493413315614.49828863456051.60784934
13315634.49828863456051.6078493413315654.49828863456051.60784934
13315674.49828863456051.6078493413315694.49828863456051.60784934
13315714.49828863456051.6078493413314754.49828863456031.60784934
13314774.49828863456031.6078493413314794.49828863456031.60784934
13314814.49828863456031.6078493413314834.49828863456031.60784934
13314854.49828863456031.6078493413314874.49828863456031.60784934
13314894.49828863456031.6078493413314914.49828863456031.60784934
13314934.49828863456031.6078493413314954.49828863456031.60784934
13314974.49828863456031.6078493413314994.49828863456031.60784934
13315014.49828863456031.6078493413315034.49828863456031.60784934
13315054.49828863456031.6078493413315074.49828863456031.60784934
13315094.49828863456031.6078493413315114.49828863456031.60784934
13315134.49828863456031.6078493413315154.49828863456031.60784934
13315174.49828863456031.6078493413315194.49828863456031.60784934
13315214.49828863456031.6078493413315234.49828863456031.60784934
13315254.49828863456031.6078493413315274.49828863456031.60784934
13315294.49828863456031.6078493413315314.49828863456031.60784934
13315334.49828863456031.6078493413315354.49828863456031.60784934
13315374.49828863456031.6078493413315394.49828863456031.60784934
13315414.49828863456031.6078493413315434.49828863456031.60784934
13315454.49828863456031.6078493413315474.49828863456031.60784934
13315494.49828863456031.6078493413315514.49828863456031.60784934
13315534.49828863456031.6078493413315554.49828863456031.60784934
13315574.49828863456031.6078493413315594.49828863456031.60784934
13315614.49828863456031.6078493413315634.49828863456031.60784934
13315654.49828863456031.6078493413315674.49828863456031.60784934
13315694.49828863456031.6078493413314734.49828863456011.60784934
13314754.49828863456011.6078493413314774.49828863456011.60784934
13314794.49828863456011.6078493413314814.49828863456011.60784934
13314834.49828863456011.6078493413314854.49828863456011.60784934
13314874.49828863456011.6078493413314894.49828863456011.60784934
13314914.49828863456011.6078493413314934.49828863456011.60784934
13314954.49828863456011.6078493413314974.49828863456011.60784934
13314994.49828863456011.6078493413315014.49828863456011.60784934
13315034.49828863456011.6078493413315054.49828863456011.60784934
13315074.49828863456011.6078493413315094.49828863456011.60784934
13315114.49828863456011.6078493413315134.49828863456011.60784934
13315154.49828863456011.6078493413315174.49828863456011.60784934
13315194.49828863456011.6078493413315214.49828863456011.60784934
13315234.49828863456011.6078493413315254.49828863456011.60784934
13315274.49828863456011.6078493413315294.49828863456011.60784934
13315314.49828863456011.6078493413315334.49828863456011.60784934
13315354.49828863456011.6078493413315374.49828863456011.60784934
13315394.49828863456011.6078493413315414.49828863456011.60784934
13315434.49828863456011.6078493413315454.49828863456011.60784934
13315474.49828863456011.6078493413315494.49828863456011.60784934
13315514.49828863456011.6078493413315534.49828863456011.60784934
13315554.49828863456011.6078493413315574.49828863456011.60784934
13315594.49828863456011.6078493413315614.49828863456011.60784934
13315634.49828863456011.6078493413315654.49828863456011.60784934
13314694.49828863455991.6078493413314714.49828863455991.60784934
13314734.49828863455991.6078493413314754.49828863455991.60784934
13314774.49828863455991.6078493413314794.49828863455991.60784934
13314814.49828863455991.6078493413314834.49828863455991.60784934
13314854.49828863455991.6078493413314874.49828863455991.60784934
13314894.49828863455991.6078493413314914.49828863455991.60784934
13314934.49828863455991.6078493413314954.49828863455991.60784934
13314974.49828863455991.6078493413314994.49828863455991.60784934
13315014.49828863455991.6078493413315034.49828863455991.60784934
13315054.49828863455991.6078493413315074.49828863455991.60784934
13315094.49828863455991.6078493413315114.49828863455991.60784934
13315134.49828863455991.6078493413315154.49828863455991.60784934
13315174.49828863455991.6078493413315194.49828863455991.60784934
13315214.49828863455991.6078493413315234.49828863455991.60784934
13315254.49828863455991.6078493413315274.49828863455991.60784934
13315294.49828863455991.6078493413315314.49828863455991.60784934
13315334.49828863455991.6078493413315354.49828863455991.60784934
13315374.49828863455991.6078493413315394.49828863455991.60784934
13315414.49828863455991.6078493413315434.49828863455991.60784934
13315454.49828863455991.6078493413315474.49828863455991.60784934
13315494.49828863455991.6078493413315514.49828863455991.60784934
13315534.49828863455991.6078493413315554.49828863455991.60784934
13315574.49828863455991.6078493413315594.49828863455991.60784934
13315614.49828863455991.6078493413315634.49828863455991.60784934
13314254.49828863455971.6078493413314274.49828863455971.60784934
13314654.49828863455971.6078493413314674.49828863455971.60784934
13314694.49828863455971.6078493413314714.49828863455971.60784934
13314734.49828863455971.6078493413314754.49828863455971.60784934
13314774.49828863455971.6078493413314794.49828863455971.60784934
13314814.49828863455971.6078493413314834.49828863455971.60784934
13314854.49828863455971.6078493413314874.49828863455971.60784934
13314894.49828863455971.6078493413314914.49828863455971.60784934
13314934.49828863455971.6078493413314954.49828863455971.60784934
13314974.49828863455971.6078493413314994.49828863455971.60784934
13315014.49828863455971.6078493413315034.49828863455971.60784934
13315054.49828863455971.6078493413315074.49828863455971.60784934
13315094.49828863455971.6078493413315114.49828863455971.60784934
13315134.49828863455971.6078493413315154.49828863455971.60784934
13315174.49828863455971.6078493413315194.49828863455971.60784934
13315214.49828863455971.6078493413315234.49828863455971.60784934
13315254.49828863455971.6078493413315274.49828863455971.60784934
13315294.49828863455971.6078493413315314.49828863455971.60784934
13315334.49828863455971.6078493413315354.49828863455971.60784934
13315374.49828863455971.6078493413315394.49828863455971.60784934
13315414.49828863455971.6078493413315434.49828863455971.60784934
13315454.49828863455971.6078493413315474.49828863455971.60784934
13315494.49828863455971.6078493413315514.49828863455971.60784934
13315534.49828863455971.6078493413315554.49828863455971.60784934
13315574.49828863455971.6078493413315594.49828863455971.60784934
13315614.49828863455971.6078493413314234.49828863455951.60784934
13314254.49828863455951.6078493413314274.49828863455951.60784934
13314294.49828863455951.6078493413314314.49828863455951.60784934
13314334.49828863455951.6078493413314354.49828863455951.60784934
13314374.49828863455951.6078493413314394.49828863455951.60784934
13314414.49828863455951.6078493413314434.49828863455951.60784934
13314454.49828863455951.6078493413314474.49828863455951.60784934
13314494.49828863455951.6078493413314514.49828863455951.60784934
13314634.49828863455951.6078493413314654.49828863455951.60784934
13314674.49828863455951.6078493413314694.49828863455951.60784934
13314714.49828863455951.6078493413314734.49828863455951.60784934
13314754.49828863455951.6078493413314774.49828863455951.60784934
13314794.49828863455951.6078493413314814.49828863455951.60784934
13314834.49828863455951.6078493413314854.49828863455951.60784934
13314874.49828863455951.6078493413314894.49828863455951.60784934
13314914.49828863455951.6078493413314934.49828863455951.60784934
13314954.49828863455951.6078493413314974.49828863455951.60784934
13314994.49828863455951.6078493413315014.49828863455951.60784934
13315034.49828863455951.6078493413315054.49828863455951.60784934
13315074.49828863455951.6078493413315094.49828863455951.60784934
13315114.49828863455951.6078493413315134.49828863455951.60784934
13315154.49828863455951.6078493413315174.49828863455951.60784934
13315194.49828863455951.6078493413315214.49828863455951.60784934
13315234.49828863455951.6078493413315254.49828863455951.60784934
13315274.49828863455951.6078493413315294.49828863455951.60784934
13315314.49828863455951.6078493413315334.49828863455951.60784934
13315354.49828863455951.6078493413315374.49828863455951.60784934
13315394.49828863455951.6078493413315414.49828863455951.60784934
13315434.49828863455951.6078493413315454.49828863455951.60784934
13315474.49828863455951.6078493413315494.49828863455951.60784934
13315514.49828863455951.6078493413315534.49828863455951.60784934
13315554.49828863455951.6078493413315574.49828863455951.60784934
13314214.49828863455931.6078493413314234.49828863455931.60784934
13314254.49828863455931.6078493413314274.49828863455931.60784934
13314294.49828863455931.6078493413314314.49828863455931.60784934
13314334.49828863455931.6078493413314354.49828863455931.60784934
13314374.49828863455931.6078493413314394.49828863455931.60784934
13314414.49828863455931.6078493413314434.49828863455931.60784934
13314454.49828863455931.6078493413314474.49828863455931.60784934
13314494.49828863455931.6078493413314514.49828863455931.60784934
13314534.49828863455931.6078493413314554.49828863455931.60784934
13314574.49828863455931.6078493413314594.49828863455931.60784934
13314614.49828863455931.6078493413314634.49828863455931.60784934
13314654.49828863455931.6078493413314674.49828863455931.60784934
13314694.49828863455931.6078493413314714.49828863455931.60784934
13314734.49828863455931.6078493413314754.49828863455931.60784934
13314774.49828863455931.6078493413314794.49828863455931.60784934
13314814.49828863455931.6078493413314834.49828863455931.60784934
13314854.49828863455931.6078493413314874.49828863455931.60784934
13314894.49828863455931.6078493413314914.49828863455931.60784934
13314934.49828863455931.6078493413314954.49828863455931.60784934
13314974.49828863455931.6078493413314994.49828863455931.60784934
13315014.49828863455931.6078493413315034.49828863455931.60784934
13315054.49828863455931.6078493413315074.49828863455931.60784934
13315094.49828863455931.6078493413315114.49828863455931.60784934